Version 4
SHEET 1 2604 680
WIRE -2032 -400 -2224 -400
WIRE -2224 -352 -2224 -400
WIRE -2032 -320 -2032 -400
WIRE -2032 -224 -2032 -240
WIRE -2032 -224 -2608 -224
WIRE -1824 -224 -2032 -224
WIRE -1648 -224 -1824 -224
WIRE -1552 -224 -1648 -224
WIRE -1424 -224 -1472 -224
WIRE -1216 -224 -1360 -224
WIRE -960 -224 -1216 -224
WIRE -800 -224 -960 -224
WIRE -1216 -176 -1216 -224
WIRE -800 -144 -800 -224
WIRE -1648 -64 -1648 -224
WIRE -1216 -64 -1216 -112
WIRE -800 0 -800 -64
WIRE -800 0 -912 0
WIRE -1312 16 -1408 16
WIRE -960 16 -960 -224
WIRE -960 16 -1088 16
WIRE -800 32 -800 0
WIRE -1312 80 -1376 80
WIRE -912 80 -912 0
WIRE -912 80 -1088 80
WIRE -1648 96 -1648 16
WIRE -1552 144 -1584 144
WIRE -1312 144 -1472 144
WIRE -1040 144 -1088 144
WIRE -800 144 -800 112
WIRE -800 144 -1040 144
WIRE -800 192 -800 144
WIRE -1312 208 -1552 208
WIRE -1008 208 -1088 208
WIRE -1552 224 -1552 208
WIRE -1776 256 -2032 256
WIRE -1376 272 -1376 80
WIRE -1040 272 -1040 144
WIRE -1040 272 -1376 272
WIRE -1008 272 -1008 208
WIRE -2224 336 -2224 -272
WIRE -2032 336 -2032 256
WIRE -2032 336 -2224 336
WIRE -1776 384 -1776 256
WIRE -1648 384 -1648 192
WIRE -1648 384 -1776 384
WIRE -1552 384 -1552 304
WIRE -1552 384 -1648 384
WIRE -1408 384 -1408 16
WIRE -1408 384 -1552 384
WIRE -1008 384 -1008 336
WIRE -1008 384 -1408 384
WIRE -800 384 -800 256
WIRE -800 384 -1008 384
FLAG -2224 336 0
FLAG -1216 -64 0
FLAG -1824 -224 ESP_INPUT
FLAG -1216 -224 555_Vrail
SYMBOL Misc\\NE555 -1200 112 R0
SYMATTR InstName U3
SYMBOL cap -1232 -176 R0
SYMATTR InstName C7
SYMATTR Value .005
SYMBOL res -1456 -240 R90
WINDOW 0 0 56 VBottom 2
WINDOW 3 32 56 VTop 2
SYMATTR InstName R10
SYMATTR Value 10
SYMBOL res -2016 -224 R180
WINDOW 0 36 76 Left 2
WINDOW 3 36 40 Left 2
SYMATTR InstName R11
SYMATTR Value 300
SYMBOL voltage -2224 -368 R0
WINDOW 123 0 0 Left 0
WINDOW 39 0 0 Left 0
SYMATTR InstName V4
SYMATTR Value 5
SYMBOL res -816 -160 R0
SYMATTR InstName R12
SYMATTR Value 10k
SYMBOL cap -816 192 R0
SYMATTR InstName C8
SYMATTR Value 0.1µ
SYMBOL cap -1024 272 R0
SYMATTR InstName C9
SYMATTR Value .01µ
SYMBOL res -816 16 R0
SYMATTR InstName R13
SYMATTR Value 100k
SYMBOL res -1664 -80 R0
SYMATTR InstName R14
SYMATTR Value 50
SYMBOL voltage -1552 208 R0
WINDOW 123 0 0 Left 0
WINDOW 39 0 0 Left 0
SYMATTR InstName V5
SYMATTR Value PULSE(0 5 12 .01ms .01ms 50ms .33 2)
SYMBOL npn -1584 96 M0
SYMATTR InstName Q1
SYMBOL diode -1424 -208 R270
WINDOW 0 32 32 VTop 2
WINDOW 3 0 32 VBottom 2
SYMATTR InstName D1
SYMBOL res -1456 128 R90
WINDOW 0 0 56 VBottom 2
WINDOW 3 32 56 VTop 2
SYMATTR InstName R1
SYMATTR Value 1k
TEXT -2162 474 Left 2 !.tran 0 15 0 .1 startup
