Version 4
SHEET 1 2724 1412
WIRE 976 384 752 384
WIRE 1200 384 976 384
WIRE 1696 384 1472 384
WIRE 1920 384 1696 384
WIRE 1200 416 1200 384
WIRE 976 544 976 384
WIRE 1696 544 1696 384
WIRE 1200 624 1200 480
WIRE 1920 624 1920 384
WIRE 976 672 976 624
WIRE 1136 672 976 672
WIRE 1696 672 1696 624
WIRE 1856 672 1696 672
WIRE 752 784 752 384
WIRE 976 784 976 672
WIRE 1472 784 1472 384
WIRE 1696 784 1696 672
WIRE 1200 864 1200 720
WIRE 1920 864 1920 720
WIRE 976 880 976 848
WIRE 1696 880 1696 848
WIRE 752 976 752 864
WIRE 976 976 976 944
WIRE 976 976 752 976
WIRE 1200 976 1200 944
WIRE 1200 976 976 976
WIRE 1472 976 1472 864
WIRE 1552 976 1472 976
WIRE 1696 976 1696 944
WIRE 1696 976 1616 976
WIRE 1920 976 1920 944
WIRE 1920 976 1696 976
FLAG 2704 -1392 0
FLAG -224 1392 0
FLAG 752 976 0
FLAG 1472 976 0
DATAFLAG 976 416 ""
DATAFLAG 1168 384 ""
DATAFLAG 1200 576 ""
DATAFLAG 1200 816 ""
DATAFLAG 976 736 ""
DATAFLAG 1696 416 ""
DATAFLAG 1888 384 ""
DATAFLAG 1920 576 ""
DATAFLAG 1920 816 ""
DATAFLAG 1696 736 ""
DATAFLAG 1776 976 ""
SYMBOL res 960 528 R0
SYMATTR InstName R1
SYMATTR Value 50k
SYMBOL voltage 752 768 R0
WINDOW 123 0 0 Left 0
WINDOW 39 0 0 Left 0
SYMATTR InstName V1
SYMATTR Value 50
SYMBOL diode 960 784 R0
SYMATTR InstName D1
SYMBOL diode 960 880 R0
SYMATTR InstName D2
SYMBOL npn 1136 624 R0
SYMATTR InstName Q1
SYMATTR Value 2N2222
SYMBOL res 1184 848 R0
SYMATTR InstName R2
SYMATTR Value 200
SYMBOL diode 1184 416 R0
SYMATTR InstName D3
SYMATTR Value XP-E2-WHT
SYMBOL res 1680 528 R0
SYMATTR InstName R3
SYMATTR Value 50k
SYMBOL voltage 1472 768 R0
WINDOW 123 0 0 Left 0
WINDOW 39 0 0 Left 0
SYMATTR InstName V2
SYMATTR Value 5
SYMBOL diode 1680 784 R0
SYMATTR InstName D4
SYMBOL diode 1680 880 R0
SYMATTR InstName D8
SYMBOL npn 1856 624 R0
SYMATTR InstName Q2
SYMATTR Value 2N2222
SYMBOL res 1904 848 R0
SYMATTR InstName R4
SYMATTR Value 200
SYMBOL diode 1616 960 R90
WINDOW 0 0 32 VBottom 2
WINDOW 3 32 32 VTop 2
SYMATTR InstName D9
SYMATTR Value XP-E2-WHT
TEXT 46 328 Left 2 !.op
