Version 4
SHEET 1 1252 948
WIRE -976 96 -1216 96
WIRE -800 96 -976 96
WIRE -720 96 -736 96
WIRE -480 96 -640 96
WIRE -416 96 -480 96
WIRE -288 96 -352 96
WIRE -192 96 -288 96
WIRE 32 96 -192 96
WIRE 80 96 32 96
WIRE 816 96 368 96
WIRE 896 96 816 96
WIRE 1168 96 896 96
WIRE 32 192 32 96
WIRE 80 192 32 192
WIRE -192 240 -192 96
WIRE -48 240 -192 240
WIRE 1168 288 1168 96
WIRE 816 304 816 96
WIRE 896 304 896 96
WIRE 816 320 816 304
WIRE -480 336 -480 96
WIRE -288 336 -288 96
WIRE -192 336 -192 240
WIRE -48 336 -48 240
WIRE -1216 352 -1216 96
WIRE -976 368 -976 96
WIRE 816 448 816 368
WIRE 896 448 896 368
WIRE 896 448 816 448
WIRE -1216 736 -1216 432
WIRE -976 736 -976 448
WIRE -976 736 -1216 736
WIRE -832 736 -976 736
WIRE -480 736 -480 400
WIRE -480 736 -832 736
WIRE -288 736 -288 400
WIRE -288 736 -480 736
WIRE -192 736 -192 400
WIRE -192 736 -288 736
WIRE -48 736 -48 400
WIRE -48 736 -192 736
WIRE 224 736 224 256
WIRE 224 736 -48 736
WIRE 896 736 896 448
WIRE 896 736 224 736
WIRE 1168 736 1168 368
WIRE 1168 736 896 736
FLAG -832 736 0
SYMBOL PowerProducts\\LT3009-3.3 224 144 R0
SYMATTR InstName U1
SYMBOL diode -416 112 R270
WINDOW 0 32 32 VTop 2
WINDOW 3 0 32 VBottom 2
SYMATTR InstName D1
SYMATTR Value 1N4148
SYMBOL diode -464 400 R180
WINDOW 0 24 64 Left 2
WINDOW 3 24 0 Left 2
SYMATTR InstName D2
SYMATTR Value 1N4148
SYMBOL cap -736 80 R90
WINDOW 0 0 32 VBottom 2
WINDOW 3 32 32 VTop 2
SYMATTR InstName C1
SYMATTR Value 0.47µ
SYMBOL res -624 80 R90
WINDOW 0 0 56 VBottom 2
WINDOW 3 32 56 VTop 2
SYMATTR InstName R1
SYMATTR Value 470
SYMBOL zener -272 400 R180
WINDOW 0 24 64 Left 2
WINDOW 3 24 0 Left 2
SYMATTR InstName D3
SYMATTR Value BZX84C6V2L
SYMBOL cap -208 336 R0
SYMATTR InstName C2
SYMATTR Value 2200µ
SYMBOL cap -64 336 R0
SYMATTR InstName C3
SYMATTR Value 0.1µ
SYMBOL voltage -1216 336 R0
WINDOW 123 0 0 Left 0
WINDOW 39 0 0 Left 0
SYMATTR InstName V1
SYMATTR Value SINE(0 160 60)
SYMBOL cap 880 304 R0
SYMATTR InstName C4
SYMATTR Value 3.3µ
SYMBOL cap 800 304 R0
SYMATTR InstName C5
SYMATTR Value 0.1µ
SYMBOL res 1152 272 R0
SYMATTR InstName R2
SYMATTR Value 1000
TEXT -1250 746 Left 2 !.tran 0 5 .001 .001
TEXT -904 856 Left 2 ;TIDA-010060
TEXT -920 904 Left 2 ;Off-Line (Non-Isolated) AC/DC Power Supply\nArchitectures Reference Design for Grid Applications
TEXT -1480 40 Left 2 ;Series Fuse and Parallel Varistor not shown
